resultados/02_tabela_falta_tres_barras/tabela_principal.csv
caso,barra,distancia_origem_km,tensao_pu,corrente_barra_a,z1_thevenin_ohm,z0_thevenin_ohm,isc_trifasico_a,isc_monofasico_a
Caso 1 — primeira barra com carga,NODE#2566408161,0.75063,0.9994153986813056,0.03387942100171104,(0.23031055492079955+0.2804923305128322j),(1.9320966674335693+5.692160547251785j),21936.225337485022,3566.6611966226474
Caso 2 — barra com carga mais distante,NODE#445010762,8.39943,0.9902408532886294,0.061174775504319184,(7.6926538776362525+4.517822729962624j),(3.297581471824371+8.787208684139138j),881.4590866104191,912.2929497695543
Caso 3 — folha sem carga,NODE#1194264563,8.079340000000002,0.9902471318987054,2.0225070276032884e-05,(7.178753504289916+4.350807781413593j),(3.2404772076357755+8.657668047988714j),936.7965258963068,952.957783558556
